/*--------------------------------*- C++ -*----------------------------------*\
| =========                 |                                                 |
| \\      /  F ield         | OpenFOAM: The Open Source CFD Toolbox           |
|  \\    /   O peration     | Version:  v2306                                 |
|   \\  /    A nd           | Website:  www.openfoam.com                      |
|    \\/     M anipulation  |                                                 |
\*---------------------------------------------------------------------------*/
FoamFile
{
    version     2.0;
    format      ascii;
    class       dictionary;
    object      turbulenceProperties;
}
// * * * * * * * * * * * * * * * * * * * * * * * * * * * * * * * * * * * * * //

simulationType      RAS;

// Values obtained from C.Y. Wu, Y.M. Ferng, C.C. Chieng, C.C. Liu,
// "Investigating the advantages and disadvantages of realistic approach 
// and porous approach for closely packed pebbles in CFD simulation".

RAS
{
    RASModel        kEpsilon;

    turbulence      on;

    printCoeffs     on;

    kEpsilonCoeffs
    {
        Cmu         0.09;
        C1          1.44;
        C2          1.92;
        sigmak      1.0;
        sigmaEps    1.3;
        sigmaT      0.9;
    }
}


// ************************************************************************* //