/*--------------------------------*- C++ -*----------------------------------*\
  =========                 |
  \\      /  F ield         | OpenFOAM: The Open Source CFD Toolbox
   \\    /   O peration     | Website:  https://openfoam.org
    \\  /    A nd           | Version:  12
     \\/     M anipulation  |
\*---------------------------------------------------------------------------*/
FoamFile
{
    format      ascii;
    class       volScalarField;
    location    "0";
    object      nut;
}
// * * * * * * * * * * * * * * * * * * * * * * * * * * * * * * * * * * * * * //

dimensions      [0 2 -1 0 0 0 0];

internalField   uniform 0;

boundaryField
{
    inlet
    {
        type            calculated;
        value           uniform 0;
    }
    outlet
    {
        type            calculated;
        value           uniform 0;
    }
    "periodic.*|grid_mesh"
    {
        type            cyclic;
    }
    "proc.*throughperiodic.*"
    {
        type            processorCyclic;
    }
    "procBoundary[0-9]*to[0-9]*"
    {
        type            processor;
    }
    grid_mesh
    {
        type            nutUSpaldingWallFunction;
        value           uniform 0;
    }
}


// ************************************************************************* //
