/*--------------------------------*- C++ -*----------------------------------*\
  =========                 |
  \\      /  F ield         | OpenFOAM: The Open Source CFD Toolbox
   \\    /   O peration     | Website:  https://openfoam.org
    \\  /    A nd           | Version:  12
     \\/     M anipulation  |
\*---------------------------------------------------------------------------*/
FoamFile
{
    format      ascii;
    class       volVectorField;
    object      U;
}
// * * * * * * * * * * * * * * * * * * * * * * * * * * * * * * * * * * * * * //

dimensions      [0 1 -1 0 0 0 0];

internalField   uniform (0 1 0);

boundaryField
{
    inlet
    {
        type            fixedValue;
        value           uniform (0 1 0);
    }
    outlet
    {
        type            zeroGradient;
    }
    "periodic.*|grid_mesh"
    {
        type            cyclic;
    }
    "proc.*throughperiodic.*"
    {
        type            processorCyclic;
    }
    "procBoundary[0-9]*to[0-9]*"
    {
        type            processor;
    }
    grid_mesh
    {
        type            noSlip;
    }
}

// ************************************************************************* //
