/*--------------------------------*- C++ -*----------------------------------*\
| =========                 |                                                 |
| \\      /  F ield         | OpenFOAM: The Open Source CFD Toolbox           |
|  \\    /   O peration     | Version:  v2306                                 |
|   \\  /    A nd           | Website:  www.openfoam.com                      |
|    \\/     M anipulation  |                                                 |
\*---------------------------------------------------------------------------*/
FoamFile
{
    version     2.0;
    format      ascii;
    class       volScalarField;
    object      epsilon;
}
// * * * * * * * * * * * * * * * * * * * * * * * * * * * * * * * * * * * * * //

#include        "include/initialConditions"

dimensions      [0 2 -3 0 0 0 0];

internalField   uniform $turbulentEpsilon;

boundaryField
{
    //- Define inlet conditions
    #include "include/fixedInlet"

    outlet
    {
        type            inletOutlet;
        inletValue      $internalField;
    }

    "periodic.*"
    {
        type            cyclic;
    }

    "proc.*throughperiodic.*"
    {
        type            processorCyclic;
    }
    
    "procBoundary[0-9]*to[0-9]*"
    {
        type            processor;
    }

    grid_mesh
    {
        type            epsilonWallFunction;
        value           $internalField;
    }
}


// ************************************************************************* //