/*--------------------------------*- C++ -*----------------------------------*\
  =========                 |
  \\      /  F ield         | OpenFOAM: The Open Source CFD Toolbox
   \\    /   O peration     | Website:  https://openfoam.org
    \\  /    A nd           | Version:  12
     \\/     M anipulation  |
\*---------------------------------------------------------------------------*/
FoamFile
{
    format      ascii;
    class       dictionary;
    object      blockMeshDict;
}
// * * * * * * * * * * * * * * * * * * * * * * * * * * * * * * * * * * * * * //

/* 
The mesh is a parallelepiped, or cylinder with square base, with the bases in the
x-z plane. It corresponds to the ranges of coordinates [0, base], [-length/2,length/2],
[0, base]. The mesh is graded so that it is more refined close to y=0.
*/

// Constants. Change these to change the domain.
convertToMeters 1; // every size is in meters.

base 1.0;
length 5.0;
num_x_cells 20;
num_y_cells 100; // must be even.
num_z_cells 20;
grading 5.0; // a higher number means more grading.

// Derived constants.
half_length #calc "$length / 2";
negative_half_length #calc "- $half_length";
half_y_cells #calc "$num_y_cells / 2";
inverse_grading #calc "1 / $grading";

vertices
(
    (0 0 0)                             // 0
    ($base 0 0)                         // 1
    ($base $half_length 0)              // 2
    (0 $half_length 0)                  // 3
    (0 0 $base)                         // 4
    ($base 0 $base)                     // 5
    ($base $half_length $base)          // 6
    (0 $half_length $base)              // 7
    (0 $negative_half_length 0)         // 8
    ($base $negative_half_length 0)     // 9
    ($base $negative_half_length $base) // 10
    (0 $negative_half_length $base)     // 11
);

blocks
(
    hex (0 1 2 3 4 5 6 7) ($num_x_cells $half_y_cells $num_z_cells) simpleGrading (1 $grading 1)
    hex (8 9 1 0 11 10 5 4) ($num_x_cells $half_y_cells $num_z_cells) simpleGrading (1 $inverse_grading 1)
);

boundary
(
    // x = 0
    periodicLeft
    {
        type cyclic;
        neighbourPatch  periodicRight; 
        faces
        (
            (0 3 4 7)
            (0 4 8 11)
        );
    }

    // x = base
    periodicRight
    {
        type cyclic;
        neighbourPatch  periodicLeft; 
        faces
        (
            (1 2 5 6)
            (1 5 9 10)
        );
    }

    // z = 0
    periodicBottom
    {
        type cyclic;
        neighbourPatch  periodicTop; 
        faces
        (
            (0 1 2 3)
            (0 1 8 9)
        );
    }

    // z = base
    periodicTop
    {
        type cyclic;
        neighbourPatch  periodicBottom; 
        faces
        (
            (4 5 6 7)
            (4 5 10 11)
        );
    }

    // y = length/2
    inlet
    {
        type wall;
        faces
        (
            (2 3 6 7)
        );
    }

    // y = -length/2
    outlet
    {
        type wall;
        faces
        (
            (8 9 10 11)
        );
    }
);


// ************************************************************************* //
